


 36 37  0  0  0  0  0  0  0  0999 V2000
    5.5910    0.6592    0.8215 C   0  0  0  1  0  0  0  0  0  0  0  0
    3.5452   -0.6174    1.1350 N   0  0  0  1  0  0  0  0  0  0  0  0
    4.7774   -0.2257    1.7458 C   0  0  0  1  0  0  0  0  0  0  0  0
    5.5376   -1.4789    2.1480 C   0  0  0  1  0  0  0  0  0  0  0  0
    4.7933   -2.3257    3.1223 C   0  0  0  1  0  0  0  0  0  0  0  0
    4.0113   -3.3984    2.7757 C   0  0  0  1  0  0  0  0  0  0  0  0
    3.4511   -3.9506    3.9178 N   0  0  0  1  0  0  0  0  0  0  0  0
    3.8942   -3.2394    5.0153 C   0  0  0  1  0  0  0  0  0  0  0  0
    3.6330   -3.4236    6.3691 C   0  0  0  1  0  0  0  0  0  0  0  0
    4.2119   -2.5505    7.2615 C   0  0  0  1  0  0  0  0  0  0  0  0
    5.0473   -1.5181    6.8204 C   0  0  0  1  0  0  0  0  0  0  0  0
    5.3116   -1.3408    5.4863 C   0  0  0  1  0  0  0  0  0  0  0  0
    4.7368   -2.2094    4.5487 C   0  0  0  1  0  0  0  0  0  0  0  0
    5.2168    0.8990   -0.3257 O   0  0  0  1  0  0  0  0  0  0  0  0
    5.6144   -0.6729    7.6765 F   0  0  0  1  0  0  0  0  0  0  0  0
    2.3588    0.0553    1.4512 C   0  0  0  1  0  0  0  0  0  0  0  0
    2.3536    0.9880    2.2376 O   0  0  0  1  0  0  0  0  0  0  0  0
    1.0994   -0.4010    0.7986 C   0  0  0  1  0  0  0  0  0  0  0  0
    6.7203    1.1488    1.3341 N   0  0  0  1  0  0  0  0  0  0  0  0
    7.5927    2.0862    0.6427 C   0  0  0  1  0  0  0  0  0  0  0  0
    3.5311   -1.3583    0.4937 H   0  0  0  1  0  0  0  0  0  0  0  0
    4.5640    0.3280    2.6362 H   0  0  0  1  0  0  0  0  0  0  0  0
    6.4665   -1.1862    2.5912 H   0  0  0  1  0  0  0  0  0  0  0  0
    5.7282   -2.0585    1.2690 H   0  0  0  1  0  0  0  0  0  0  0  0
    3.8618   -3.7441    1.8063 H   0  0  0  1  0  0  0  0  0  0  0  0
    2.8420   -4.7179    3.9419 H   0  0  0  1  0  0  0  0  0  0  0  0
    3.0194   -4.1968    6.6966 H   0  0  0  1  0  0  0  0  0  0  0  0
    4.0258   -2.6596    8.2789 H   0  0  0  1  0  0  0  0  0  0  0  0
    5.9333   -0.5682    5.1731 H   0  0  0  1  0  0  0  0  0  0  0  0
    0.4928   -0.9160    1.5139 H   0  0  0  1  0  0  0  0  0  0  0  0
    1.3358   -1.0614   -0.0095 H   0  0  0  1  0  0  0  0  0  0  0  0
    0.5654    0.4466    0.4227 H   0  0  0  1  0  0  0  0  0  0  0  0
    6.9793    0.8590    2.2337 H   0  0  0  1  0  0  0  0  0  0  0  0
    8.4293    1.5598    0.2328 H   0  0  0  1  0  0  0  0  0  0  0  0
    7.9405    2.8254    1.3336 H   0  0  0  1  0  0  0  0  0  0  0  0
    7.0498    2.5625   -0.1468 H   0  0  0  1  0  0  0  0  0  0  0  0
  1  3  1  0  0  0  0
  1 14  2  0  0  0  0
  1 19  1  0  0  0  0
  2  3  1  0  0  0  0
  2 16  1  0  0  0  0
  2 21  1  0  0  0  0
  3  4  1  0  0  0  0
  3 22  1  0  0  0  0
  4  5  1  0  0  0  0
  4 23  1  0  0  0  0
  4 24  1  0  0  0  0
  5  6  2  0  0  0  0
  5 13  1  0  0  0  0
  6  7  1  0  0  0  0
  6 25  1  0  0  0  0
  7  8  1  0  0  0  0
  7 26  1  0  0  0  0
  8  9  1  0  0  0  0
  8 13  2  0  0  0  0
  9 10  2  0  0  0  0
  9 27  1  0  0  0  0
 10 11  1  0  0  0  0
 10 28  1  0  0  0  0
 11 12  2  0  0  0  0
 11 15  1  0  0  0  0
 12 13  1  0  0  0  0
 12 29  1  0  0  0  0
 16 17  2  0  0  0  0
 16 18  1  0  0  0  0
 18 30  1  0  0  0  0
 18 31  1  0  0  0  0
 18 32  1  0  0  0  0
 19 20  1  0  0  0  0
 19 33  1  0  0  0  0
 20 34  1  0  0  0  0
 20 35  1  0  0  0  0
 20 36  1  0  0  0  0
M  END
> <BCLConfClusterSize>
1

> <ConfClashScore>
0 

> <ConfOneFourInteractionScore>
-0.981931 

> <ConfScore>
0.170687 

> <ConfScorePBest>
1 

> <SampleByParts>
0 18 19 

$$$$
